60

O          1.44495       -2.31924        1.38522
H          0.95234       -1.48426        1.52887
H          2.36946       -2.11395        1.61167
O          1.41987       -2.46261       -1.40071
H          1.44123       -2.49457       -0.41941
H          0.77716       -3.14685       -1.65757
O          0.00684        0.01722        1.40272
H          0.38933        0.90656        1.56254
H         -0.96095        0.05033        1.56098
O         -2.73673       -0.07171        1.35884
H         -2.78819       -0.09461        0.37790
H         -2.97860       -0.97176        1.64139
O          4.04546        1.46279       -1.46127
H          4.78811        1.76399       -1.99129
H          4.03332        0.47319       -1.53135
O         -1.00080        4.22496        1.49829
H         -1.15219        5.00826        2.03356
H         -1.83284        3.68561        1.54163
O         -3.22724        2.74922       -1.54533
H         -3.84126        3.21173       -2.12179
H         -2.37034        3.24859       -1.58887
O          0.06155       -0.06087       -1.35048
H          0.54041       -0.88921       -1.56890
H          0.05250       -0.05173       -0.36611
O          1.35058        2.36244       -1.42555
H          2.29434        2.21804       -1.61653
H          0.92556        1.48779       -1.55953
O          4.07971       -1.27059        1.51017
H          4.81843       -1.53072        2.06676
H          4.00882       -0.28331        1.57928
O         -0.91184        4.11468       -1.39683
H         -0.86996        4.32897       -0.44936
H         -0.08975        3.63055       -1.58597
O         -2.68502       -0.04248       -1.42744
H         -2.98314        0.85600       -1.65622
H         -1.71323       -0.04381       -1.56353
O         -3.12955       -2.86655       -1.32994
H         -3.11409       -1.91914       -1.54810
H         -3.30324       -2.90259       -0.37369
O          1.22443        2.47801        1.35954
H          0.58124        3.16580        1.60761
H          1.27284        2.51610        0.37930
O         -0.81281       -4.23313       -1.52393
H         -0.94666       -5.02137       -2.05665
H         -1.66337       -3.72324       -1.55437
O         -3.24989        2.75446        1.34798
H         -3.19246        1.81202        1.57904
H         -3.43476        2.76669        0.39286
O          4.03738       -1.23136       -1.38124
H          3.23353       -1.71951       -1.62408
H          4.16040       -1.40123       -0.43129
O         -3.09401       -2.88512        1.56615
H         -2.21802       -3.35106        1.59440
H         -3.68982       -3.38678        2.12860
O         -0.73325       -4.16593        1.36978
H          0.07092       -3.65384        1.56192
H         -0.68799       -4.35978        0.41770
O          3.90981        1.41647        1.42572
H          3.06605        1.84957        1.63677
H          4.05542        1.59284        0.48015
