60

O         -0.46743       -1.41564        2.34248
H         -0.51039       -0.53278        2.73835
H         -1.15437       -1.41354        1.63906
O         -1.18050       -4.41149       -2.02179
H         -1.60060       -5.08050       -2.56841
H         -1.62966       -4.44435       -1.13069
O         -0.38908       -4.34162        2.36492
H         -0.41223       -3.42544        2.67803
H          0.49545       -4.45168        1.97664
O         -2.37083       -1.40107        0.33174
H         -2.76871       -0.51906        0.37644
H         -1.90081       -1.43128       -0.53146
O         -1.04122       -1.57734       -2.08986
H         -0.07410       -1.54786       -1.91830
H         -1.22108       -2.50289       -2.33343
O          1.64030       -4.35198       -1.60310
H          0.69076       -4.47912       -1.78646
H          1.82344       -3.43325       -1.85486
O         -2.33246       -4.31911        0.37107
H         -1.67492       -4.41615        1.09457
H         -2.66334       -3.41306        0.45871
O          1.67874       -1.46766       -1.58955
H          1.80425       -1.46838       -0.61352
H          1.96913       -0.59219       -1.88710
O          2.01778       -1.57002        1.14573
H          1.13433       -1.53678        1.57643
H          2.31872       -2.48990        1.25419
O          2.18246       -4.39307        1.03117
H          2.85543       -5.04635        1.23845
H          2.00311       -4.46273        0.05737
O         -0.41524        4.38425        2.28761
H         -0.56798        5.06537        2.94793
H         -1.11277        4.48765        1.60383
O         -1.10466        1.27600       -2.07868
H         -1.27379        0.38606       -2.42789
H         -1.54214        1.29739       -1.19847
O         -0.33434        1.48216        2.31578
H          0.53480        1.41014        1.86066
H         -0.37972        2.39860        2.62949
O         -2.27499        4.37689        0.23400
H         -1.79885        4.34629       -0.64276
H         -2.98126        5.02135        0.13715
O         -0.99338        4.14316       -2.08436
H         -0.02989        4.27011       -2.00227
H         -1.10879        3.22162       -2.36880
O          1.63444        1.39543       -1.69183
H          0.66381        1.36085       -1.84130
H          1.89368        2.30768       -1.90403
O         -2.32151        1.47852        0.39293
H         -2.62501        2.40011        0.38783
H         -1.61926        1.45253        1.08121
O          1.81454        4.24911       -1.64994
H          2.40209        4.89003       -2.05851
H          1.98094        4.28431       -0.67212
O          2.16929        4.13202        1.01248
H          2.38102        3.20111        1.19335
H          1.33729        4.30083        1.48663
O          2.09581        1.26960        1.02273
H          2.41833        0.37685        1.22848
H          1.93536        1.27026        0.05204
