12

O         -1.45649        1.28721       -0.00737
H         -0.49297        1.47969       -0.00986
H         -1.81942        1.74937        0.75214
O         -1.28721       -1.45649        0.00737
H         -1.47969       -0.49297        0.00986
H         -1.74937       -1.81942       -0.75214
O          1.45649       -1.28721       -0.00737
H          0.49297       -1.47969       -0.00986
H          1.81942       -1.74937        0.75214
O          1.28721        1.45649        0.00737
H          1.47969        0.49297        0.00986
H          1.74937        1.81942       -0.75214
