18

O          1.42826       -0.40037        1.41066
H          0.49629       -0.73117        1.52660
H          1.93466       -0.70272        2.16828
O          0.73729        1.98932       -0.06951
H          1.06371        1.44580        0.66525
H          1.09895        1.53860       -0.84481
O          1.62555       -0.52609       -1.36333
H          2.35462       -0.95284       -1.82027
H          1.76565       -0.66675       -0.40687
O         -1.91746        1.24548       -0.07588
H         -1.01953        1.64534       -0.08613
H         -2.54355        1.96848       -0.16154
O         -1.20379       -1.31120       -1.37741
H         -0.27178       -1.12925       -1.57558
H         -1.60901       -0.43640       -1.28234
O         -1.13158       -1.15890        1.42431
H         -1.19170       -1.49419        0.50620
H         -1.61656       -0.32314        1.36237
