7

O         -1.19973        0.02902        0.11575
H         -1.63142       -0.73332        0.52841
H         -1.69400        0.29562       -0.67242
O          1.19973       -0.02902        0.11575
H          0.00000        0.00000        0.05654
H          1.69400       -0.29562       -0.67242
H          1.63142        0.73332        0.52841
