14

O          0.79413       -0.15805        2.06604
O         -0.02660       -1.46863        0.00000
H          0.85354        1.31757        0.76327
H         -0.04921        0.05569        2.47386
O          0.70602        1.90611        0.00000
H          0.85354        1.31757       -0.76327
O          0.79413       -0.15805       -2.06604
H         -0.04921        0.05569       -2.47386
H          0.52530       -0.76678       -1.28987
O         -2.03773        0.39059        0.00000
H         -1.39115        1.10999        0.00000
H         -1.45458       -0.40796        0.00000
H          0.52530       -0.76678        1.28987
H         -0.04348       -2.42696        0.00000
