14

H         -0.02679        1.58183        0.28342
H          1.58183        0.02679        0.28342
H          0.02679       -1.58183        0.28342
H         -1.58183       -0.02679        0.28342
O          0.00000        0.00000        0.95790
H          0.00000        0.00000        1.91770
O          0.03142        2.41857       -0.25299
O          2.41857       -0.03142       -0.25299
O         -0.03142       -2.41857       -0.25299
O         -2.41857        0.03142       -0.25299
H          0.84305        2.27852       -0.74934
H          2.27852       -0.84305       -0.74934
H         -0.84305       -2.27852       -0.74934
H         -2.27852        0.84305       -0.74934
