11

H          1.83052       -1.89685       -0.69396
O          2.20229       -1.15195       -0.21661
H          1.38056       -0.68486        0.15031
H          0.00000        0.00000        1.62059
H         -0.09718        1.53803        0.15031
H          0.72746        2.53370       -0.69396
O         -0.10352        2.48321       -0.21661
O          0.00000        0.00000        0.66021
H         -1.28338       -0.85317        0.15031
O         -2.09877       -1.33126       -0.21661
H         -2.55798       -0.63685       -0.69396
